Version 4
SHEET 1 2856 680
WIRE 1024 -272 64 -272
WIRE 1216 -272 1024 -272
WIRE 1392 -272 1216 -272
WIRE 1984 -272 1392 -272
WIRE 2048 -272 1984 -272
WIRE 2080 -272 2048 -272
WIRE 2496 -272 2464 -272
WIRE 1216 -256 1216 -272
WIRE 1024 -192 1024 -272
WIRE 1072 -192 1024 -192
WIRE 1392 -192 1392 -272
WIRE 1392 -192 1360 -192
WIRE 2048 -192 2048 -272
WIRE 2080 -192 2048 -192
WIRE 2496 -192 2496 -208
WIRE 2496 -192 2464 -192
WIRE 2560 -192 2496 -192
WIRE 2672 -192 2640 -192
WIRE 2752 -192 2672 -192
WIRE 1024 -176 1024 -192
WIRE 1392 -176 1392 -192
WIRE 2752 -176 2752 -192
WIRE 64 -128 64 -272
WIRE 64 -128 -16 -128
WIRE 80 -128 64 -128
WIRE 240 -128 80 -128
WIRE -16 -112 -16 -128
WIRE 240 -112 240 -128
WIRE 2080 -112 2064 -112
WIRE 2496 -112 2464 -112
WIRE 2672 -112 2672 -192
WIRE 2672 -112 2496 -112
WIRE 1024 -96 1024 -112
WIRE 1072 -96 1024 -96
WIRE 1392 -96 1392 -112
WIRE 1392 -96 1360 -96
WIRE 2672 -96 2672 -112
WIRE 1024 -80 1024 -96
WIRE 1392 -80 1392 -96
WIRE 2752 -80 2752 -96
WIRE 80 -64 80 -128
WIRE 96 -64 80 -64
WIRE 400 -64 384 -64
WIRE 480 -64 464 -64
WIRE 2080 -32 2064 -32
WIRE 2496 -32 2496 -112
WIRE 2496 -32 2464 -32
WIRE -16 -16 -16 -32
WIRE 2672 -16 2672 -32
WIRE 992 0 976 0
WIRE 1072 0 1056 0
WIRE 1552 0 1360 0
WIRE 416 32 384 32
WIRE 416 48 416 32
WIRE 2528 48 2464 48
WIRE 1392 96 1360 96
WIRE 1392 112 1392 96
WIRE 416 128 416 112
WIRE 416 128 384 128
WIRE 480 128 416 128
WIRE 592 128 560 128
WIRE 704 128 592 128
WIRE 800 128 704 128
WIRE 896 128 800 128
WIRE 2528 128 2528 48
WIRE 2528 128 2464 128
WIRE 592 144 592 128
WIRE 704 144 704 128
WIRE 800 144 800 128
WIRE 896 144 896 128
WIRE 2528 144 2528 128
WIRE 1392 192 1392 176
WIRE 1392 192 1360 192
WIRE 1440 192 1392 192
WIRE 1552 192 1552 0
WIRE 1552 192 1520 192
WIRE 1664 192 1552 192
WIRE 1760 192 1664 192
WIRE 1856 192 1760 192
WIRE 1552 208 1552 192
WIRE 1664 208 1664 192
WIRE 1760 208 1760 192
WIRE 1856 208 1856 192
WIRE 16 224 -16 224
WIRE 96 224 80 224
WIRE 592 224 384 224
WIRE 704 224 704 208
WIRE 704 224 592 224
WIRE 2528 224 2528 208
WIRE 592 240 592 224
WIRE 800 240 800 208
WIRE 896 240 896 224
WIRE 992 288 976 288
WIRE 1072 288 1056 288
WIRE 1552 288 1360 288
WIRE 1664 288 1664 272
WIRE 1664 288 1552 288
WIRE 2080 288 2064 288
WIRE 2480 288 2464 288
WIRE 1552 304 1552 288
WIRE 1760 304 1760 272
WIRE 1856 304 1856 288
WIRE 0 320 -16 320
WIRE 96 320 80 320
WIRE 400 320 384 320
WIRE 592 336 592 320
WIRE 1168 368 1168 352
WIRE 1264 368 1264 352
WIRE 2208 384 2208 368
WIRE 2336 384 2336 368
WIRE 1552 400 1552 384
WIRE 1168 464 1168 448
FLAG -16 320 0
FLAG -16 224 0
FLAG -16 -16 0
FLAG 480 -64 0
FLAG 800 240 0
FLAG 592 336 0
FLAG 896 240 0
FLAG 896 128 OUT
FLAG -16 -128 IN
FLAG 400 320 0
FLAG 1264 368 0
FLAG 1168 464 0
FLAG 976 0 0
FLAG 1760 304 0
FLAG 1552 400 0
FLAG 1856 304 0
FLAG 1856 192 OUT
FLAG 1024 -80 0
FLAG 1392 -80 0
FLAG 976 288 0
FLAG 2752 -192 OUT
FLAG 2064 -112 0
FLAG 2064 288 0
FLAG 2752 -80 0
FLAG 2672 -16 0
FLAG 2208 384 0
FLAG 2336 384 0
FLAG 2480 288 0
FLAG 2528 224 0
FLAG 2064 -32 0
FLAG 1984 -208 0
SYMBOL res 96 304 R90
WINDOW 0 0 56 VBottom 2
WINDOW 3 32 56 VTop 2
SYMATTR InstName R1
SYMATTR Value 18.2K
SYMBOL cap 80 208 R90
WINDOW 0 0 32 VBottom 2
WINDOW 3 32 32 VTop 2
SYMATTR InstName C1
SYMATTR Value .001µ
SYMBOL voltage -16 -128 R0
WINDOW 123 0 0 Left 0
WINDOW 39 0 0 Left 0
SYMATTR InstName V1
SYMATTR Value 12
SYMBOL cap 400 -48 R270
WINDOW 0 32 32 VTop 2
WINDOW 3 0 32 VBottom 2
SYMATTR InstName C2
SYMATTR Value 1µ
SYMBOL ind 464 144 R270
WINDOW 0 32 56 VTop 2
WINDOW 3 5 56 VBottom 2
SYMATTR InstName L1
SYMATTR Value 2.2µ
SYMATTR SpiceLine Rser=3m
SYMBOL cap 400 48 R0
SYMATTR InstName C3
SYMATTR Value 0.1µ
SYMBOL cap 784 144 R0
SYMATTR InstName C4
SYMATTR Value 22µ
SYMATTR SpiceLine V=6.3 Irms=0 Rser=0.002 Lser=0 mfg="TDK" pn="C4532X5ROJ47@M" type="X5R"
SYMBOL res 576 128 R0
SYMATTR InstName R2
SYMATTR Value 976K
SYMBOL res 576 224 R0
SYMATTR InstName R3
SYMATTR Value 178K
SYMBOL cap 688 144 R0
SYMATTR InstName C5
SYMATTR Value 10p
SYMBOL res 880 128 R0
SYMATTR InstName Rload
SYMATTR Value 2.5
SYMBOL LT8608 240 128 R0
SYMATTR InstName U1
SYMBOL res 1152 352 R0
SYMATTR InstName R4
SYMATTR Value 41.2K
SYMBOL cap 1056 16 M270
WINDOW 0 32 32 VTop 2
WINDOW 3 0 32 VBottom 2
SYMATTR InstName C6
SYMATTR Value 1µ
SYMBOL ind 1424 208 R270
WINDOW 0 32 56 VTop 2
WINDOW 3 5 56 VBottom 2
SYMATTR InstName L2
SYMATTR Value 3.3µ
SYMATTR SpiceLine Rser=10m
SYMBOL cap 1376 112 R0
SYMATTR InstName C7
SYMATTR Value .1µ
SYMBOL cap 1744 208 R0
SYMATTR InstName C8
SYMATTR Value 47µ
SYMATTR SpiceLine V=6.3 Irms=0 Rser=0.002 Lser=0 mfg="TDK" pn="C4532X5ROJ47@M" type="X5R"
SYMBOL res 1536 192 R0
SYMATTR InstName R5
SYMATTR Value 1Meg
SYMBOL res 1536 288 R0
SYMATTR InstName R6
SYMATTR Value 243K
SYMBOL cap 1648 208 R0
SYMATTR InstName C9
SYMATTR Value 4.7p
SYMBOL res 1840 192 R0
SYMATTR InstName Rload1
SYMATTR Value 1
SYMBOL cap 1008 -176 R0
SYMATTR InstName C10
SYMATTR Value 1µ
SYMBOL cap 1376 -176 R0
SYMATTR InstName C11
SYMATTR Value 1µ
SYMBOL cap 1056 304 M270
WINDOW 0 32 32 VTop 2
WINDOW 3 0 32 VBottom 2
SYMATTR InstName C12
SYMATTR Value 1n
SYMBOL PowerProducts\\LT8640 1216 48 R0
SYMATTR InstName U2
SYMBOL ind 2544 -176 R270
WINDOW 0 32 56 VTop 2
WINDOW 3 5 56 VBottom 2
SYMATTR InstName L3
SYMATTR Value 47µ
SYMATTR SpiceLine Rser=5m
SYMBOL cap 2656 -96 R0
SYMATTR Value 47µ
SYMATTR SpiceLine Rser=15m
SYMATTR InstName C13
SYMBOL res 2736 -192 R0
SYMATTR InstName Rload2
SYMATTR Value 10
SYMBOL cap 2512 144 R0
SYMATTR Value 1µ
SYMATTR SpiceLine Rser=20m
SYMATTR Value2 IC=0
SYMATTR InstName C14
SYMBOL cap 2480 -272 R0
SYMATTR Value 0.1µ
SYMATTR SpiceLine Rser=15m
SYMATTR InstName C15
SYMBOL LT7101 2272 32 R0
SYMATTR InstName U3
SYMBOL cap 1968 -272 R0
SYMATTR InstName C16
SYMATTR Value 4.7µC
TEXT 720 320 Left 2 !.tran 600u startup
TEXT 1176 216 Left 2 ;5V5A
TEXT 216 312 Left 2 ;5V2A
